3
	c16_h8 unit cell in angstroms
H        2.460673809  -0.000005410  13.612187386
C        2.460673809   0.000000229  12.495553970
C        2.460673809   1.420670629  12.041896820


	c16_h8 unit cell in bohrs
H	4.649999247		-0.000010223	25.723304270
C	4.649999247		0.000000433		23.613173084
C	4.649999247		2.684678209		22.755885378

	Unit Cell for tiniba/abinit
4.649999247 -0.000010223 25.723304270
4.649999247 0.000000433 23.613173084
4.649999247 2.684678209 22.755885378

Distance X: 2.460674047 ANGSTROMS = 4.649999696 BOHRS
Distance Y: 4.262012253 ANGSTROMS = 8.054035318 BOHRS
