8

H          2.46067        3.86749       13.65108
H          2.46067        6.07720       13.65108
H          1.23034        1.73653       10.88633
H          1.23034        3.94615       10.88633
C          2.46067        4.19607       12.59048
C          2.46067        5.74863       12.59048
C          1.23034        2.06508       11.94697
C          1.23034        3.61760       11.94697
